Circuit: * D:\dev\repos\kh8833-poweramp\Simulaciones\psu-aux.asc

.OP point found by inspection.

Date: Sat Aug 06 01:49:26 2022
Total elapsed time: 0.035 seconds.

tnom = 27
temp = 27
method = modified trap
totiter = 10587
traniter = 10587
tranpoints = 2880
accept = 2315
rejected = 565
matrix size = 6
fillins = 1
solver = Normal
Matrix Compiler1:      18 opcodes  0.1/[0.1]/0.1
Matrix Compiler2:      36 opcodes  0.1/[0.1]/0.1

